135968625
  -OEChem-11082216262D

127132  0     1  0  0  0  0  0999 V2000
    7.9466   -2.5255    0.0000 O   0  0  0  0  0  0  0  0  0  0  0  0
    6.6074   -2.0183    0.0000 O   0  0  0  0  0  0  0  0  0  0  0  0
    6.7674    0.9768    0.0000 O   0  0  0  0  0  0  0  0  0  0  0  0
   10.0138   -2.9420    0.0000 O   0  0  0  0  0  0  0  0  0  0  0  0
   12.5270   -1.2467    0.0000 O   0  0  0  0  0  0  0  0  0  0  0  0
   13.0000    0.6588    0.0000 O   0  0  0  0  0  0  0  0  0  0  0  0
    9.0854   -3.8306    0.0000 O   0  0  0  0  0  0  0  0  0  0  0  0
   10.2886    0.0327    0.0000 O   0  0  0  0  0  0  0  0  0  0  0  0
   11.9168   -1.0964    0.0000 O   0  0  0  0  0  0  0  0  0  0  0  0
    9.6485    3.8605    0.0000 O   0  0  0  0  0  0  0  0  0  0  0  0
   11.3969    3.8259    0.0000 O   0  0  0  0  0  0  0  0  0  0  0  0
    6.1949    1.8750    0.0000 O   0  0  0  0  0  0  0  0  0  0  0  0
    4.5551   -1.1034    0.0000 N   0  0  0  0  0  0  0  0  0  0  0  0
    6.4318   -0.4119    0.0000 N   0  0  0  0  0  0  0  0  0  0  0  0
    7.3701   -0.0662    0.0000 N   0  0  0  0  0  0  0  0  0  0  0  0
    7.8329    1.9066    0.0000 N   0  0  0  0  0  0  0  0  0  0  0  0
    3.6168   -1.4491    0.0000 C   0  0  0  0  0  0  0  0  0  0  0  0
    3.3450   -2.4115    0.0000 C   0  0  0  0  0  0  0  0  0  0  0  0
    2.7856   -0.8932    0.0000 C   0  0  0  0  0  0  0  0  0  0  0  0
    2.3457   -2.4504    0.0000 C   0  0  0  0  0  0  0  0  0  0  0  0
    2.0000   -1.5120    0.0000 C   0  0  0  0  0  0  0  0  0  0  0  0
    5.3238   -1.7432    0.0000 C   0  0  0  0  0  0  0  0  0  0  0  0
    4.7249   -0.1178    0.0000 C   0  0  0  0  0  0  0  0  0  0  0  0
    7.6129   -0.8259    0.0000 C   0  0  2  0  0  0  0  0  0  0  0  0
    6.6316   -1.0186    0.0000 C   0  0  1  0  0  0  0  0  0  0  0  0
    6.2621   -1.3975    0.0000 C   0  0  0  0  0  0  0  0  0  0  0  0
    5.6633    0.2280    0.0000 C   0  0  0  0  0  0  0  0  0  0  0  0
    8.2704   -1.5794    0.0000 C   0  0  1  0  0  0  0  0  0  0  0  0
    5.8015   -0.4609    0.0000 C   0  0  1  0  0  0  0  0  0  0  0  0
    9.2516   -1.3867    0.0000 C   0  0  1  0  0  0  0  0  0  0  0  0
    5.8694    0.5368    0.0000 C   0  0  2  0  0  0  0  0  0  0  0  0
    8.3664   -0.1684    0.0000 C   0  0  0  0  0  0  0  0  0  0  0  0
   10.0817   -1.9444    0.0000 C   0  0  2  0  0  0  0  0  0  0  0  0
    5.0393    1.0944    0.0000 C   0  0  1  0  0  0  0  0  0  0  0  0
    5.0042   -1.2896    0.0000 C   0  0  0  0  0  0  0  0  0  0  0  0
    9.4491   -0.4064    0.0000 C   0  0  0  0  0  0  0  0  0  0  0  0
    4.1413    0.6543    0.0000 C   0  0  0  0  0  0  0  0  0  0  0  0
   10.9797   -1.5043    0.0000 C   0  0  0  0  0  0  0  0  0  0  0  0
    5.1072    2.0921    0.0000 C   0  0  0  0  0  0  0  0  0  0  0  0
    8.1392   -3.5068    0.0000 C   0  0  0  0  0  0  0  0  0  0  0  0
    7.8668    0.8017    0.0000 C   0  0  0  0  0  0  0  0  0  0  0  0
   11.8098   -2.0619    0.0000 C   0  0  0  0  0  0  0  0  0  0  0  0
    8.7309    1.3051    0.0000 C   0  0  0  0  0  0  0  0  0  0  0  0
    6.0051    2.5321    0.0000 C   0  0  0  0  0  0  0  0  0  0  0  0
   12.5949   -0.2490    0.0000 C   0  0  1  0  0  0  0  0  0  0  0  0
   10.8439   -3.4997    0.0000 C   0  0  0  0  0  0  0  0  0  0  0  0
   10.5309    1.3259    0.0000 C   0  0  0  0  0  0  0  0  0  0  0  0
   11.3969    0.8259    0.0000 C   0  0  0  0  0  0  0  0  0  0  0  0
    9.6370    0.7912    0.0000 C   0  0  0  0  0  0  0  0  0  0  0  0
    7.3858   -4.1643    0.0000 C   0  0  0  0  0  0  0  0  0  0  0  0
    8.7309    2.3467    0.0000 C   0  0  0  0  0  0  0  0  0  0  0  0
   11.6061   -0.1459    0.0000 C   0  0  0  0  0  0  0  0  0  0  0  0
   12.2630    1.3259    0.0000 C   0  0  0  0  0  0  0  0  0  0  0  0
   10.5309    2.3259    0.0000 C   0  0  0  0  0  0  0  0  0  0  0  0
    9.6370    2.8606    0.0000 C   0  0  0  0  0  0  0  0  0  0  0  0
   12.2630    2.3259    0.0000 C   0  0  0  0  0  0  0  0  0  0  0  0
    6.0730    3.5298    0.0000 C   0  0  0  0  0  0  0  0  0  0  0  0
   11.3969    2.8259    0.0000 C   0  0  0  0  0  0  0  0  0  0  0  0
   13.5653   -0.4904    0.0000 C   0  0  0  0  0  0  0  0  0  0  0  0
    7.0707    3.4620    0.0000 C   0  0  0  0  0  0  0  0  0  0  0  0
    7.0028    2.4643    0.0000 C   0  0  0  0  0  0  0  0  0  0  0  0
   13.1290    2.8259    0.0000 C   0  0  0  0  0  0  0  0  0  0  0  0
    7.8242    4.1194    0.0000 C   0  0  0  0  0  0  0  0  0  0  0  0
    4.0719   -1.8702    0.0000 H   0  0  0  0  0  0  0  0  0  0  0  0
    3.3042   -3.0302    0.0000 H   0  0  0  0  0  0  0  0  0  0  0  0
    3.9560   -2.5168    0.0000 H   0  0  0  0  0  0  0  0  0  0  0  0
    3.1822   -0.4167    0.0000 H   0  0  0  0  0  0  0  0  0  0  0  0
    2.3531   -0.4489    0.0000 H   0  0  0  0  0  0  0  0  0  0  0  0
    1.7448   -2.6027    0.0000 H   0  0  0  0  0  0  0  0  0  0  0  0
    2.4345   -3.0640    0.0000 H   0  0  0  0  0  0  0  0  0  0  0  0
    1.6694   -0.9875    0.0000 H   0  0  0  0  0  0  0  0  0  0  0  0
    1.4438   -1.7860    0.0000 H   0  0  0  0  0  0  0  0  0  0  0  0
    4.8504   -2.1436    0.0000 H   0  0  0  0  0  0  0  0  0  0  0  0
    5.6359   -2.2789    0.0000 H   0  0  0  0  0  0  0  0  0  0  0  0
    4.6148    0.4923    0.0000 H   0  0  0  0  0  0  0  0  0  0  0  0
    4.1049   -0.1203    0.0000 H   0  0  0  0  0  0  0  0  0  0  0  0
    7.3400   -0.2692    0.0000 H   0  0  0  0  0  0  0  0  0  0  0  0
    6.0810   -1.3035    0.0000 H   0  0  0  0  0  0  0  0  0  0  0  0
    6.3722   -2.0076    0.0000 H   0  0  0  0  0  0  0  0  0  0  0  0
    6.8821   -1.3950    0.0000 H   0  0  0  0  0  0  0  0  0  0  0  0
    6.1367    0.6284    0.0000 H   0  0  0  0  0  0  0  0  0  0  0  0
    5.3511    0.7637    0.0000 H   0  0  0  0  0  0  0  0  0  0  0  0
    7.6620   -1.6988    0.0000 H   0  0  0  0  0  0  0  0  0  0  0  0
    5.2346   -0.2098    0.0000 H   0  0  0  0  0  0  0  0  0  0  0  0
    8.8143   -0.9472    0.0000 H   0  0  0  0  0  0  0  0  0  0  0  0
    5.9115    1.1553    0.0000 H   0  0  0  0  0  0  0  0  0  0  0  0
    8.7740   -0.6356    0.0000 H   0  0  0  0  0  0  0  0  0  0  0  0
    8.8335    0.2392    0.0000 H   0  0  0  0  0  0  0  0  0  0  0  0
    7.9587    0.2987    0.0000 H   0  0  0  0  0  0  0  0  0  0  0  0
   10.5964   -2.2901    0.0000 H   0  0  0  0  0  0  0  0  0  0  0  0
    4.9972    0.4758    0.0000 H   0  0  0  0  0  0  0  0  0  0  0  0
    4.5574   -0.8598    0.0000 H   0  0  0  0  0  0  0  0  0  0  0  0
    4.5743   -1.7364    0.0000 H   0  0  0  0  0  0  0  0  0  0  0  0
    5.4510   -1.7195    0.0000 H   0  0  0  0  0  0  0  0  0  0  0  0
   10.0569   -0.5289    0.0000 H   0  0  0  0  0  0  0  0  0  0  0  0
    9.5716    0.2014    0.0000 H   0  0  0  0  0  0  0  0  0  0  0  0
    8.8414   -0.2840    0.0000 H   0  0  0  0  0  0  0  0  0  0  0  0
    7.1366   -2.3412    0.0000 H   0  0  0  0  0  0  0  0  0  0  0  0
    3.8685    1.2111    0.0000 H   0  0  0  0  0  0  0  0  0  0  0  0
    3.5846    0.3815    0.0000 H   0  0  0  0  0  0  0  0  0  0  0  0
    4.4142    0.0976    0.0000 H   0  0  0  0  0  0  0  0  0  0  0  0
   11.0218   -0.8857    0.0000 H   0  0  0  0  0  0  0  0  0  0  0  0
    6.8094    1.5954    0.0000 H   0  0  0  0  0  0  0  0  0  0  0  0
    4.5925    2.4378    0.0000 H   0  0  0  0  0  0  0  0  0  0  0  0
    7.3903    1.1984    0.0000 H   0  0  0  0  0  0  0  0  0  0  0  0
   11.8606   -2.6798    0.0000 H   0  0  0  0  0  0  0  0  0  0  0  0
    6.5720    2.2810    0.0000 H   0  0  0  0  0  0  0  0  0  0  0  0
   10.4982   -4.0143    0.0000 H   0  0  0  0  0  0  0  0  0  0  0  0
   11.3586   -3.8454    0.0000 H   0  0  0  0  0  0  0  0  0  0  0  0
   11.1897   -2.9850    0.0000 H   0  0  0  0  0  0  0  0  0  0  0  0
    6.9781   -3.6971    0.0000 H   0  0  0  0  0  0  0  0  0  0  0  0
    6.9186   -4.5719    0.0000 H   0  0  0  0  0  0  0  0  0  0  0  0
    7.7934   -4.6314    0.0000 H   0  0  0  0  0  0  0  0  0  0  0  0
    5.6654    3.9970    0.0000 H   0  0  0  0  0  0  0  0  0  0  0  0
   13.4156   -1.0921    0.0000 H   0  0  0  0  0  0  0  0  0  0  0  0
   14.1669   -0.6401    0.0000 H   0  0  0  0  0  0  0  0  0  0  0  0
   13.7150    0.1113    0.0000 H   0  0  0  0  0  0  0  0  0  0  0  0
    8.1984    1.4058    0.0000 H   0  0  0  0  0  0  0  0  0  0  0  0
   13.4390    2.2890    0.0000 H   0  0  0  0  0  0  0  0  0  0  0  0
   13.6659    3.1359    0.0000 H   0  0  0  0  0  0  0  0  0  0  0  0
   12.8190    3.3628    0.0000 H   0  0  0  0  0  0  0  0  0  0  0  0
   10.8979    0.1474    0.0000 H   0  0  0  0  0  0  0  0  0  0  0  0
   10.1890    4.1643    0.0000 H   0  0  0  0  0  0  0  0  0  0  0  0
    8.2318    3.6523    0.0000 H   0  0  0  0  0  0  0  0  0  0  0  0
    8.2913    4.5271    0.0000 H   0  0  0  0  0  0  0  0  0  0  0  0
    7.4165    4.5866    0.0000 H   0  0  0  0  0  0  0  0  0  0  0  0
   11.9339    4.1359    0.0000 H   0  0  0  0  0  0  0  0  0  0  0  0
 28  1  1  1  0  0  0
  1 40  1  0  0  0  0
 25  2  1  6  0  0  0
  2 98  1  0  0  0  0
 31  3  1  6  0  0  0
  3103  1  0  0  0  0
 33  4  1  6  0  0  0
  4 46  1  0  0  0  0
  5 42  1  0  0  0  0
  5 45  1  0  0  0  0
  6 45  1  0  0  0  0
  6 53  1  0  0  0  0
  7 40  2  0  0  0  0
  8 49  1  0  0  0  0
  8122  1  0  0  0  0
  9 52  2  0  0  0  0
 10 55  1  0  0  0  0
 10123  1  0  0  0  0
 11 58  1  0  0  0  0
 11127  1  0  0  0  0
 12 61  2  0  0  0  0
 13 17  1  0  0  0  0
 13 22  1  0  0  0  0
 13 23  1  0  0  0  0
 14 15  1  0  0  0  0
 14 26  1  0  0  0  0
 14 27  1  0  0  0  0
 15 41  2  3  0  0  0
 16 51  1  0  0  0  0
 16 61  1  0  0  0  0
 16118  1  0  0  0  0
 17 18  1  0  0  0  0
 17 19  1  0  0  0  0
 17 64  1  0  0  0  0
 18 20  1  0  0  0  0
 18 65  1  0  0  0  0
 18 66  1  0  0  0  0
 19 21  1  0  0  0  0
 19 67  1  0  0  0  0
 19 68  1  0  0  0  0
 20 21  1  0  0  0  0
 20 69  1  0  0  0  0
 20 70  1  0  0  0  0
 21 71  1  0  0  0  0
 21 72  1  0  0  0  0
 22 26  1  0  0  0  0
 22 73  1  0  0  0  0
 22 74  1  0  0  0  0
 23 27  1  0  0  0  0
 23 75  1  0  0  0  0
 23 76  1  0  0  0  0
 24 25  1  0  0  0  0
 24 28  1  0  0  0  0
 24 32  1  1  0  0  0
 24 77  1  0  0  0  0
 25 29  1  0  0  0  0
 25 78  1  0  0  0  0
 26 79  1  0  0  0  0
 26 80  1  0  0  0  0
 27 81  1  0  0  0  0
 27 82  1  0  0  0  0
 28 30  1  0  0  0  0
 28 83  1  0  0  0  0
 29 31  1  0  0  0  0
 29 35  1  6  0  0  0
 29 84  1  0  0  0  0
 30 33  1  0  0  0  0
 30 36  1  6  0  0  0
 30 85  1  0  0  0  0
 31 34  1  0  0  0  0
 31 86  1  0  0  0  0
 32 87  1  0  0  0  0
 32 88  1  0  0  0  0
 32 89  1  0  0  0  0
 33 38  1  0  0  0  0
 33 90  1  0  0  0  0
 34 37  1  1  0  0  0
 34 39  1  0  0  0  0
 34 91  1  0  0  0  0
 35 92  1  0  0  0  0
 35 93  1  0  0  0  0
 35 94  1  0  0  0  0
 36 95  1  0  0  0  0
 36 96  1  0  0  0  0
 36 97  1  0  0  0  0
 37 99  1  0  0  0  0
 37100  1  0  0  0  0
 37101  1  0  0  0  0
 38 42  2  0  0  0  0
 38102  1  0  0  0  0
 39 44  2  0  0  0  0
 39104  1  0  0  0  0
 40 50  1  0  0  0  0
 41 43  1  0  0  0  0
 41105  1  0  0  0  0
 42106  1  0  0  0  0
 43 49  1  0  0  0  0
 43 51  2  0  0  0  0
 44 57  1  0  0  0  0
 44107  1  0  0  0  0
 45 52  1  0  0  0  0
 45 59  1  1  0  0  0
 46108  1  0  0  0  0
 46109  1  0  0  0  0
 46110  1  0  0  0  0
 47 48  1  0  0  0  0
 47 49  2  0  0  0  0
 47 54  1  0  0  0  0
 48 52  1  0  0  0  0
 48 53  2  0  0  0  0
 50111  1  0  0  0  0
 50112  1  0  0  0  0
 50113  1  0  0  0  0
 51 55  1  0  0  0  0
 53 56  1  0  0  0  0
 54 55  2  0  0  0  0
 54 58  1  0  0  0  0
 56 58  2  0  0  0  0
 56 62  1  0  0  0  0
 57 60  2  0  0  0  0
 57114  1  0  0  0  0
 59115  1  0  0  0  0
 59116  1  0  0  0  0
 59117  1  0  0  0  0
 60 61  1  0  0  0  0
 60 63  1  0  0  0  0
 62119  1  0  0  0  0
 62120  1  0  0  0  0
 62121  1  0  0  0  0
 63124  1  0  0  0  0
 63125  1  0  0  0  0
 63126  1  0  0  0  0
M  END
> <PUBCHEM_COMPOUND_CID>
135968625

> <PUBCHEM_COMPOUND_CANONICALIZED>
1

> <PUBCHEM_CACTVS_COMPLEXITY>
1730

> <PUBCHEM_CACTVS_HBOND_ACCEPTOR>
15

> <PUBCHEM_CACTVS_HBOND_DONOR>
6

> <PUBCHEM_CACTVS_ROTATABLE_BOND>
6

> <PUBCHEM_CACTVS_SUBSKEYS>
AAADcfB/vAAAAAAAAAAAAAAAAAAAAaIAAAA8YIAAAAAAAEjBUAAAHgAYCAAADTzhmAYCzsPABgCoArXzWAKSCAAlIAAYiAFtTNgedzbWtZ+2eWjn7B3c+Yf6/P/O6QADSgAaEADSAAaUADQgAAAAAAAAAA==

> <PUBCHEM_IUPAC_OPENEYE_NAME>
[(7S,9E,11S,12R,13S,14R,15R,16R,17S,18S,19E,21Z)-26-[(4-cyclopentylpiperazin-1-yl)iminomethyl]-2,15,17,27,29-pentahydroxy-11-methoxy-3,7,12,14,16,18,22-heptamethyl-6,23-dioxo-8,30-dioxa-24-azatetracyclo[23.3.1.14,7.05,28]triaconta-1(29),2,4,9,19,21,25,27-octaen-13-yl] acetate

> <PUBCHEM_IUPAC_CAS_NAME>
acetic acid [(7S,9E,11S,12R,13S,14R,15R,16R,17S,18S,19E,21Z)-26-[(4-cyclopentyl-1-piperazinyl)iminomethyl]-2,15,17,27,29-pentahydroxy-11-methoxy-3,7,12,14,16,18,22-heptamethyl-6,23-dioxo-8,30-dioxa-24-azatetracyclo[23.3.1.14,7.05,28]triaconta-1(29),2,4,9,19,21,25,27-octaen-13-yl] ester

> <PUBCHEM_IUPAC_NAME_MARKUP>
[(7<I>S</I>,9<I>E</I>,11<I>S</I>,12<I>R</I>,13<I>S</I>,14<I>R</I>,15<I>R</I>,16<I>R</I>,17<I>S</I>,18<I>S</I>,19<I>E</I>,21<I>Z</I>)-26-[(4-cyclopentylpiperazin-1-yl)iminomethyl]-2,15,17,27,29-pentahydroxy-11-methoxy-3,7,12,14,16,18,22-heptamethyl-6,23-dioxo-8,30-dioxa-24-azatetracyclo[23.3.1.1<SUP>4,7</SUP>.0<SUP>5,28</SUP>]triaconta-1(29),2,4,9,19,21,25,27-octaen-13-yl] acetate

> <PUBCHEM_IUPAC_NAME>
[(7S,9E,11S,12R,13S,14R,15R,16R,17S,18S,19E,21Z)-26-[(4-cyclopentylpiperazin-1-yl)iminomethyl]-2,15,17,27,29-pentahydroxy-11-methoxy-3,7,12,14,16,18,22-heptamethyl-6,23-dioxo-8,30-dioxa-24-azatetracyclo[23.3.1.14,7.05,28]triaconta-1(29),2,4,9,19,21,25,27-octaen-13-yl] acetate

> <PUBCHEM_IUPAC_SYSTEMATIC_NAME>
[(7S,9E,11S,12R,13S,14R,15R,16R,17S,18S,19E,21Z)-26-[(4-cyclopentylpiperazin-1-yl)iminomethyl]-11-methoxy-3,7,12,14,16,18,22-heptamethyl-2,15,17,27,29-pentakis(oxidanyl)-6,23-bis(oxidanylidene)-8,30-dioxa-24-azatetracyclo[23.3.1.14,7.05,28]triaconta-1(29),2,4,9,19,21,25,27-octaen-13-yl] ethanoate

> <PUBCHEM_IUPAC_TRADITIONAL_NAME>
acetic acid [(7S,9E,11S,12R,13S,14R,15R,16R,17S,18S,19E,21Z)-26-[(4-cyclopentylpiperazino)iminomethyl]-2,15,17,27,29-pentahydroxy-6,23-diketo-11-methoxy-3,7,12,14,16,18,22-heptamethyl-8,30-dioxa-24-azatetracyclo[23.3.1.14,7.05,28]triaconta-1(29),2,4,9,19,21,25,27-octaen-13-yl] ester

> <PUBCHEM_IUPAC_INCHI>
InChI=1S/C47H64N4O12/c1-24-13-12-14-25(2)46(59)49-37-32(23-48-51-20-18-50(19-21-51)31-15-10-11-16-31)41(56)34-35(42(37)57)40(55)29(6)44-36(34)45(58)47(8,63-44)61-22-17-33(60-9)26(3)43(62-30(7)52)28(5)39(54)27(4)38(24)53/h12-14,17,22-24,26-28,31,33,38-39,43,53-57H,10-11,15-16,18-21H2,1-9H3,(H,49,59)/b13-12+,22-17+,25-14-,48-23?/t24-,26+,27+,28+,33-,38-,39+,43+,47-/m0/s1

> <PUBCHEM_IUPAC_INCHIKEY>
WDZCUPBHRAEYDL-LYDPARFQSA-N

> <PUBCHEM_XLOGP3_AA>
6.7

> <PUBCHEM_EXACT_MASS>
876.45207349

> <PUBCHEM_MOLECULAR_FORMULA>
C47H64N4O12

> <PUBCHEM_MOLECULAR_WEIGHT>
877.0

> <PUBCHEM_OPENEYE_CAN_SMILES>
CC1C=CC=C(C(=O)NC2=C(C(=C3C(=C2O)C(=C(C4=C3C(=O)C(O4)(OC=CC(C(C(C(C(C(C1O)C)O)C)OC(=O)C)C)OC)C)C)O)O)C=NN5CCN(CC5)C6CCCC6)C

> <PUBCHEM_OPENEYE_ISO_SMILES>
C[C@H]1/C=C/C=C(\C(=O)NC2=C(C(=C3C(=C2O)C(=C(C4=C3C(=O)[C@](O4)(O/C=C/[C@@H]([C@H]([C@H]([C@@H]([C@@H]([C@@H]([C@H]1O)C)O)C)OC(=O)C)C)OC)C)C)O)O)C=NN5CCN(CC5)C6CCCC6)/C

> <PUBCHEM_CACTVS_TPSA>
220

> <PUBCHEM_MONOISOTOPIC_WEIGHT>
876.45207349

> <PUBCHEM_TOTAL_CHARGE>
0

> <PUBCHEM_HEAVY_ATOM_COUNT>
63

> <PUBCHEM_ATOM_DEF_STEREO_COUNT>
9

> <PUBCHEM_ATOM_UDEF_STEREO_COUNT>
0

> <PUBCHEM_BOND_DEF_STEREO_COUNT>
3

> <PUBCHEM_BOND_UDEF_STEREO_COUNT>
1

> <PUBCHEM_ISOTOPIC_ATOM_COUNT>
0

> <PUBCHEM_COMPONENT_COUNT>
1

> <PUBCHEM_CACTVS_TAUTO_COUNT>
1000

> <PUBCHEM_COORDINATE_TYPE>
1
5
255

> <PUBCHEM_BONDANNOTATIONS>
28  1  5
15  41  1
25  2  6
24  32  5
29  35  6
31  3  6
30  36  6
34  37  5
33  4  6
43  49  8
43  51  8
45  59  5
47  48  8
47  49  8
47  54  8
48  53  8
51  55  8
53  56  8
54  55  8
54  58  8
56  58  8

$$$$
17397414

  -OEChem-09180909462D
 47 49  0     0  0  0  0  0  0999 V2000
    4.5981   -1.6012    0.0000 O   0  0  0  0  0  0  0  0  0  0  0  0
   11.5738    1.4920    0.0000 O   0  0  0  0  0  0  0  0  0  0  0  0
    8.0622    0.3988    0.0000 O   0  0  0  0  0  0  0  0  0  0  0  0
    6.3301   -2.6012    0.0000 O   0  0  0  0  0  0  0  0  0  0  0  0
    7.1962   -1.1012    0.0000 N   0  0  0  0  0  0  0  0  0  0  0  0
    9.7942    0.3988    0.0000 N   0  0  0  0  0  0  0  0  0  0  0  0
    8.0622   -1.6012    0.0000 C   0  0  0  0  0  0  0  0  0  0  0  0
    8.9282   -1.1012    0.0000 C   0  0  0  0  0  0  0  0  0  0  0  0
    8.0622   -2.6012    0.0000 C   0  0  0  0  0  0  0  0  0  0  0  0
    8.9282   -0.1012    0.0000 C   0  0  0  0  0  0  0  0  0  0  0  0
    9.7942   -1.6012    0.0000 C   0  0  0  0  0  0  0  0  0  0  0  0
    6.3301   -1.6012    0.0000 C   0  0  0  0  0  0  0  0  0  0  0  0
    9.7942    1.3988    0.0000 C   0  0  0  0  0  0  0  0  0  0  0  0
    7.1962   -0.1012    0.0000 C   0  0  0  0  0  0  0  0  0  0  0  0
    8.9282   -3.1012    0.0000 C   0  0  0  0  0  0  0  0  0  0  0  0
    9.7942   -2.6012    0.0000 C   0  0  0  0  0  0  0  0  0  0  0  0
    5.4641   -1.1012    0.0000 C   0  0  0  0  0  0  0  0  0  0  0  0
   10.6603    1.8988    0.0000 C   0  0  0  0  0  0  0  0  0  0  0  0
   10.7648    2.8933    0.0000 C   0  0  0  0  0  0  0  0  0  0  0  0
    3.7321   -1.1012    0.0000 C   0  0  0  0  0  0  0  0  0  0  0  0
   11.7429    3.1012    0.0000 C   0  0  0  0  0  0  0  0  0  0  0  0
   12.2429    2.2352    0.0000 C   0  0  0  0  0  0  0  0  0  0  0  0
    2.8660   -1.6012    0.0000 C   0  0  0  0  0  0  0  0  0  0  0  0
    3.7321   -0.1012    0.0000 C   0  0  0  0  0  0  0  0  0  0  0  0
    2.0000   -1.1012    0.0000 C   0  0  0  0  0  0  0  0  0  0  0  0
    2.8660    0.3988    0.0000 C   0  0  0  0  0  0  0  0  0  0  0  0
    2.0000   -0.1012    0.0000 C   0  0  0  0  0  0  0  0  0  0  0  0
    7.5252   -2.9112    0.0000 H   0  0  0  0  0  0  0  0  0  0  0  0
   10.3312   -1.2912    0.0000 H   0  0  0  0  0  0  0  0  0  0  0  0
    9.1836    1.2911    0.0000 H   0  0  0  0  0  0  0  0  0  0  0  0
    9.5822    1.9814    0.0000 H   0  0  0  0  0  0  0  0  0  0  0  0
    7.8162   -0.1012    0.0000 H   0  0  0  0  0  0  0  0  0  0  0  0
    6.5762   -0.1012    0.0000 H   0  0  0  0  0  0  0  0  0  0  0  0
    7.1962    0.5188    0.0000 H   0  0  0  0  0  0  0  0  0  0  0  0
   10.3312    0.0888    0.0000 H   0  0  0  0  0  0  0  0  0  0  0  0
    8.9282   -3.7212    0.0000 H   0  0  0  0  0  0  0  0  0  0  0  0
    5.0656   -0.6263    0.0000 H   0  0  0  0  0  0  0  0  0  0  0  0
    5.8626   -0.6263    0.0000 H   0  0  0  0  0  0  0  0  0  0  0  0
   10.3312   -2.9112    0.0000 H   0  0  0  0  0  0  0  0  0  0  0  0
   10.3040    3.3082    0.0000 H   0  0  0  0  0  0  0  0  0  0  0  0
   11.9951    3.6676    0.0000 H   0  0  0  0  0  0  0  0  0  0  0  0
   12.8595    2.1704    0.0000 H   0  0  0  0  0  0  0  0  0  0  0  0
    2.8660   -2.2212    0.0000 H   0  0  0  0  0  0  0  0  0  0  0  0
    4.2690    0.2088    0.0000 H   0  0  0  0  0  0  0  0  0  0  0  0
    1.4631   -1.4112    0.0000 H   0  0  0  0  0  0  0  0  0  0  0  0
    2.8660    1.0188    0.0000 H   0  0  0  0  0  0  0  0  0  0  0  0
    1.4631    0.2088    0.0000 H   0  0  0  0  0  0  0  0  0  0  0  0
  1 17  1  0  0  0  0
  1 20  1  0  0  0  0
  2 18  1  0  0  0  0
  2 22  1  0  0  0  0
  3 10  2  0  0  0  0
  4 12  2  0  0  0  0
  5  7  1  0  0  0  0
  5 12  1  0  0  0  0
  5 14  1  0  0  0  0
  6 10  1  0  0  0  0
  6 13  1  0  0  0  0
  6 35  1  0  0  0  0
  7  8  1  0  0  0  0
  7  9  2  0  0  0  0
  8 10  1  0  0  0  0
  8 11  2  0  0  0  0
  9 15  1  0  0  0  0
  9 28  1  0  0  0  0
 11 16  1  0  0  0  0
 11 29  1  0  0  0  0
 12 17  1  0  0  0  0
 13 18  1  0  0  0  0
 13 30  1  0  0  0  0
 13 31  1  0  0  0  0
 14 32  1  0  0  0  0
 14 33  1  0  0  0  0
 14 34  1  0  0  0  0
 15 16  2  0  0  0  0
 15 36  1  0  0  0  0
 16 39  1  0  0  0  0
 17 37  1  0  0  0  0
 17 38  1  0  0  0  0
 18 19  2  0  0  0  0
 19 21  1  0  0  0  0
 19 40  1  0  0  0  0
 20 23  2  0  0  0  0
 20 24  1  0  0  0  0
 21 22  2  0  0  0  0
 21 41  1  0  0  0  0
 22 42  1  0  0  0  0
 23 25  1  0  0  0  0
 23 43  1  0  0  0  0
 24 26  2  0  0  0  0
 24 44  1  0  0  0  0
 25 27  2  0  0  0  0
 25 45  1  0  0  0  0
 26 27  1  0  0  0  0
 26 46  1  0  0  0  0
 27 47  1  0  0  0  0
M  END
> <PUBCHEM_COMPOUND_CID>
17397414
> <sequencenumber>
1
> <PUBCHEM_COMPOUND_CANONICALIZED>
1
> <PUBCHEM_CACTVS_COMPLEXITY>
493
> <PUBCHEM_CACTVS_HBOND_ACCEPTOR>
4
> <PUBCHEM_CACTVS_HBOND_DONOR>
1
> <PUBCHEM_CACTVS_ROTATABLE_BOND>
7
> <PUBCHEM_CACTVS_SUBSKEYS>
AAADceB7OAAAAAAAAAAAAAAAAAAAASAAAAAwYAAAAAAAAAAB0AAAHgAQAAAADAzhmAYyxoPABECIAq1S0AKCCAAlIgAIiIHObMgOJjrE9b+HOajkxhHY6ceY2QKOAAAAAAACAAAAAAAAAAQAAAAAAAAAAA==
> <PUBCHEM_IUPAC_OPENEYE_NAME>
N-(2-furylmethyl)-2-[methyl-(2-phenoxyacetyl)amino]benzamide
> <PUBCHEM_IUPAC_CAS_NAME>
N-(2-furylmethyl)-2-[methyl-(1-oxo-2-phenoxyethyl)amino]benzamide
> <PUBCHEM_IUPAC_NAME>
N-(furan-2-ylmethyl)-2-[methyl-(2-phenoxyacetyl)amino]benzamide
> <PUBCHEM_IUPAC_SYSTEMATIC_NAME>
N-(furan-2-ylmethyl)-2-[methyl(2-phenoxyethanoyl)amino]benzamide
> <PUBCHEM_IUPAC_TRADITIONAL_NAME>
N-(2-furfuryl)-2-[methyl-(2-phenoxyacetyl)amino]benzamide
> <PUBCHEM_NIST_INCHI>
InChI=1S/C21H20N2O4/c1-23(20(24)15-27-16-8-3-2-4-9-16)19-12-6-5-11-18(19)21(25)22-14-17-10-7-13-26-17/h2-13H,14-15H2,1H3,(H,22,25)
> <PUBCHEM_NIST_INCHIKEY>
SGSZAVKEVSVBPS-UHFFFAOYSA-N
> <PUBCHEM_XLOGP3_AA>
2.9
> <PUBCHEM_EXACT_MASS>
364.142307
> <PUBCHEM_MOLECULAR_FORMULA>
C21H20N2O4
> <PUBCHEM_MOLECULAR_WEIGHT>
364.3945
> <PUBCHEM_OPENEYE_CAN_SMILES>
CN(C1=CC=CC=C1C(=O)NCC2=CC=CO2)C(=O)COC3=CC=CC=C3
> <PUBCHEM_OPENEYE_ISO_SMILES>
CN(C1=CC=CC=C1C(=O)NCC2=CC=CO2)C(=O)COC3=CC=CC=C3
> <PUBCHEM_CACTVS_TPSA>
71.8
> <PUBCHEM_MONOISOTOPIC_WEIGHT>
364.142307
> <PUBCHEM_TOTAL_CHARGE>
0
> <PUBCHEM_HEAVY_ATOM_COUNT>
27
> <PUBCHEM_ATOM_DEF_STEREO_COUNT>
0
> <PUBCHEM_ATOM_UDEF_STEREO_COUNT>
0
> <PUBCHEM_BOND_DEF_STEREO_COUNT>
0
> <PUBCHEM_BOND_UDEF_STEREO_COUNT>
0
> <PUBCHEM_ISOTOPIC_ATOM_COUNT>
0
> <PUBCHEM_COMPONENT_COUNT>
1
> <PUBCHEM_CACTVS_TAUTO_COUNT>
2
> <PUBCHEM_COORDINATE_TYPE>
1
5
255
> <PUBCHEM_BONDANNOTATIONS>
11  16  8
15  16  8
18  19  8
19  21  8
2  18  8
2  22  8
20  23  8
20  24  8
21  22  8
23  25  8
24  26  8
25  27  8
26  27  8
7  8  8
7  9  8
8  11  8
9  15  8
$$$$
16685683

  -OEChem-09180909462D
 80 69  0     1  0  0  0  0  0999 V2000
    5.9728   27.8650    0.0000 Sb  0  4  3  0  0  0  0  0  0  0  0  0
    4.5832   29.2070    0.0000 Sb  0  4  3  0  0  0  0  0  0  0  0  0
    3.9625   27.5900    0.0000 Na  0  3  0  0  0  0  0  0  0  0  0  0
    9.1740   28.5481    0.0000 Na  0  3  0  0  0  0  0  0  0  0  0  0
    7.3256   32.4098    0.0000 Na  0  3  0  0  0  0  0  0  0  0  0  0
    5.0982   28.3498    0.0000 O   0  0  0  0  0  0  0  0  0  0  0  0
    7.8359   27.1207    0.0000 O   0  0  0  0  0  0  0  0  0  0  0  0
    4.7415   26.2890    0.0000 O   0  0  0  0  0  0  0  0  0  0  0  0
    5.4764   29.7848    0.0000 O   0  0  0  0  0  0  0  0  0  0  0  0
    4.1054   31.1555    0.0000 O   0  0  0  0  0  0  0  0  0  0  0  0
    2.8511   28.2070    0.0000 O   0  0  0  0  0  0  0  0  0  0  0  0
    6.4151   28.4482    0.0000 O   0  0  0  0  0  0  0  0  0  0  0  0
    5.2415   27.1830    0.0000 O   0  0  0  0  0  0  0  0  0  0  0  0
    3.8060   28.5777    0.0000 O   0  5  0  0  0  0  0  0  0  0  0  0
    6.5719   24.2901    0.0000 O   0  0  0  0  0  0  0  0  0  0  0  0
    0.6781   28.6247    0.0000 O   0  0  0  0  0  0  0  0  0  0  0  0
    6.7100   31.6218    0.0000 O   0  5  0  0  0  0  0  0  0  0  0  0
    8.0118   31.0692    0.0000 O   0  0  0  0  0  0  0  0  0  0  0  0
    4.9746   23.0864    0.0000 O   0  0  0  0  0  0  0  0  0  0  0  0
    8.1740   28.5481    0.0000 O   0  5  0  0  0  0  0  0  0  0  0  0
    8.1740   30.2801    0.0000 O   0  0  0  0  0  0  0  0  0  0  0  0
    0.1605   30.5566    0.0000 O   0  0  0  0  0  0  0  0  0  0  0  0
    4.5870   42.0012    0.0000 O   0  0  0  0  0  0  0  0  0  0  0  0
   20.0798   23.3458    0.0000 O   0  0  0  0  0  0  0  0  0  0  0  0
   16.2655   23.3458    0.0000 O   0  0  0  0  0  0  0  0  0  0  0  0
   12.4513   23.3458    0.0000 O   0  0  0  0  0  0  0  0  0  0  0  0
   20.0798   19.9203    0.0000 O   0  0  0  0  0  0  0  0  0  0  0  0
   16.2655   19.9203    0.0000 O   0  0  0  0  0  0  0  0  0  0  0  0
   12.4513   19.9203    0.0000 O   0  0  0  0  0  0  0  0  0  0  0  0
    4.5870   38.5757    0.0000 O   0  0  0  0  0  0  0  0  0  0  0  0
   20.0798   16.4949    0.0000 O   0  0  0  0  0  0  0  0  0  0  0  0
    6.9654   27.9869    0.0000 C   0  0  3  0  0  0  0  0  0  0  0  0
    4.8420   30.1729    0.0000 C   0  0  3  0  0  0  0  0  0  0  0  0
    5.5295   25.6733    0.0000 C   0  0  3  0  0  0  0  0  0  0  0  0
    2.3511   29.0730    0.0000 C   0  0  3  0  0  0  0  0  0  0  0  0
    6.4689   29.9066    0.0000 C   0  0  3  0  0  0  0  0  0  0  0  0
    6.6740   29.4141    0.0000 C   0  0  3  0  0  0  0  0  0  0  0  0
    5.6514   24.6808    0.0000 C   0  0  3  0  0  0  0  0  0  0  0  0
    1.3852   29.3319    0.0000 C   0  0  3  0  0  0  0  0  0  0  0  0
    7.0846   30.6946    0.0000 C   0  0  0  0  0  0  0  0  0  0  0  0
    7.6740   29.4141    0.0000 C   0  0  0  0  0  0  0  0  0  0  0  0
    4.8528   24.0790    0.0000 C   0  0  0  0  0  0  0  0  0  0  0  0
    1.1264   30.2978    0.0000 C   0  0  0  0  0  0  0  0  0  0  0  0
    7.5033   28.2952    0.0000 H   0  0  0  0  0  0  0  0  0  0  0  0
    4.8492   29.5530    0.0000 H   0  0  0  0  0  0  0  0  0  0  0  0
    4.9899   25.3680    0.0000 H   0  0  0  0  0  0  0  0  0  0  0  0
    1.9737   28.5812    0.0000 H   0  0  0  0  0  0  0  0  0  0  0  0
    6.1636   30.4462    0.0000 H   0  0  0  0  0  0  0  0  0  0  0  0
    7.0514   28.9222    0.0000 H   0  0  0  0  0  0  0  0  0  0  0  0
    5.6643   26.7296    0.0000 H   0  0  0  0  0  0  0  0  0  0  0  0
    4.8188   27.6364    0.0000 H   0  0  0  0  0  0  0  0  0  0  0  0
    6.1466   25.0539    0.0000 H   0  0  0  0  0  0  0  0  0  0  0  0
    1.5457   28.7330    0.0000 H   0  0  0  0  0  0  0  0  0  0  0  0
    3.2272   28.7999    0.0000 H   0  0  0  0  0  0  0  0  0  0  0  0
    4.2599   23.8977    0.0000 H   0  0  0  0  0  0  0  0  0  0  0  0
    4.5713   24.6314    0.0000 H   0  0  0  0  0  0  0  0  0  0  0  0
    1.1804   30.9154    0.0000 H   0  0  0  0  0  0  0  0  0  0  0  0
    1.7440   30.3518    0.0000 H   0  0  0  0  0  0  0  0  0  0  0  0
    6.6475   23.6747    0.0000 H   0  0  0  0  0  0  0  0  0  0  0  0
    0.0792   28.7852    0.0000 H   0  0  0  0  0  0  0  0  0  0  0  0
    4.4796   22.7133    0.0000 H   0  0  0  0  0  0  0  0  0  0  0  0
    0.0000   31.1555    0.0000 H   0  0  0  0  0  0  0  0  0  0  0  0
    4.0500   42.3111    0.0000 H   0  0  0  0  0  0  0  0  0  0  0  0
    5.1239   42.3111    0.0000 H   0  0  0  0  0  0  0  0  0  0  0  0
   19.5428   23.6558    0.0000 H   0  0  0  0  0  0  0  0  0  0  0  0
   20.6167   23.6558    0.0000 H   0  0  0  0  0  0  0  0  0  0  0  0
   15.7286   23.6558    0.0000 H   0  0  0  0  0  0  0  0  0  0  0  0
   16.8025   23.6558    0.0000 H   0  0  0  0  0  0  0  0  0  0  0  0
   11.9143   23.6558    0.0000 H   0  0  0  0  0  0  0  0  0  0  0  0
   12.9882   23.6558    0.0000 H   0  0  0  0  0  0  0  0  0  0  0  0
   19.5428   20.2303    0.0000 H   0  0  0  0  0  0  0  0  0  0  0  0
   20.6167   20.2303    0.0000 H   0  0  0  0  0  0  0  0  0  0  0  0
   16.8025   20.2303    0.0000 H   0  0  0  0  0  0  0  0  0  0  0  0
   15.7286   20.2303    0.0000 H   0  0  0  0  0  0  0  0  0  0  0  0
   12.9882   20.2303    0.0000 H   0  0  0  0  0  0  0  0  0  0  0  0
   11.9143   20.2303    0.0000 H   0  0  0  0  0  0  0  0  0  0  0  0
    5.1239   38.8857    0.0000 H   0  0  0  0  0  0  0  0  0  0  0  0
    4.0500   38.8857    0.0000 H   0  0  0  0  0  0  0  0  0  0  0  0
   20.6167   16.8049    0.0000 H   0  0  0  0  0  0  0  0  0  0  0  0
   19.5428   16.8049    0.0000 H   0  0  0  0  0  0  0  0  0  0  0  0
  1  6  1  0  0  0  0
  1  7  1  0  0  0  0
  1  8  1  0  0  0  0
  1  9  1  0  0  0  0
  2  6  1  0  0  0  0
  2 10  1  0  0  0  0
  2 11  1  0  0  0  0
  2 12  1  0  0  0  0
  7 32  1  0  0  0  0
  8 34  1  0  0  0  0
  9 36  1  0  0  0  0
 10 33  1  0  0  0  0
 11 35  1  0  0  0  0
 12 37  1  0  0  0  0
 13 50  1  0  0  0  0
 13 51  1  0  0  0  0
 14 54  1  0  0  0  0
 15 38  1  0  0  0  0
 15 59  1  0  0  0  0
 16 39  1  0  0  0  0
 16 60  1  0  0  0  0
 17 40  1  0  0  0  0
 18 40  2  0  0  0  0
 19 42  1  0  0  0  0
 19 61  1  0  0  0  0
 20 41  1  0  0  0  0
 21 41  2  0  0  0  0
 22 43  1  0  0  0  0
 22 62  1  0  0  0  0
 23 63  1  0  0  0  0
 23 64  1  0  0  0  0
 24 65  1  0  0  0  0
 24 66  1  0  0  0  0
 25 67  1  0  0  0  0
 25 68  1  0  0  0  0
 26 69  1  0  0  0  0
 26 70  1  0  0  0  0
 27 71  1  0  0  0  0
 27 72  1  0  0  0  0
 28 73  1  0  0  0  0
 28 74  1  0  0  0  0
 29 75  1  0  0  0  0
 29 76  1  0  0  0  0
 30 77  1  0  0  0  0
 30 78  1  0  0  0  0
 31 79  1  0  0  0  0
 31 80  1  0  0  0  0
 32 34  1  0  0  0  0
 32 36  1  0  0  0  0
 32 44  1  0  0  0  0
 33 35  1  0  0  0  0
 33 37  1  0  0  0  0
 33 45  1  0  0  0  0
 34 38  1  0  0  0  0
 34 46  1  0  0  0  0
 35 39  1  0  0  0  0
 35 47  1  0  0  0  0
 36 40  1  0  0  0  0
 36 48  1  0  0  0  0
 37 41  1  0  0  0  0
 37 49  1  0  0  0  0
 38 42  1  0  0  0  0
 38 52  1  0  0  0  0
 39 43  1  0  0  0  0
 39 53  1  0  0  0  0
 42 55  1  0  0  0  0
 42 56  1  0  0  0  0
 43 57  1  0  0  0  0
 43 58  1  0  0  0  0
M  CHG  6   3   1   4   1   5   1  14  -1  17  -1  20  -1
M  RAD  2   1   2   2   2
M  END
> <PUBCHEM_COMPOUND_CID>
16685683
> <sequencenumber>
2
> <PUBCHEM_COMPOUND_CANONICALIZED>
1
> <PUBCHEM_CACTVS_COMPLEXITY>
685
> <PUBCHEM_CACTVS_HBOND_ACCEPTOR>
26
> <PUBCHEM_CACTVS_HBOND_DONOR>
15
> <PUBCHEM_CACTVS_ROTATABLE_BOND>
6
> <PUBCHEM_CACTVS_SUBSKEYS>
AAADcfBwPjAAAAAAAABAAAAAAAAAASJEiQAkSAAAAAAAAAAAAAAAGgAACAAACBSggAIACAAAAgAIAACQCAIAAAAAAAAAAAFAAAABEBYAAAAAQAAFIAABAAHKbARAAAAAAAAAAAAAAAAAAAAAAAAAAAAAAA==
> <PUBCHEM_IUPAC_OPENEYE_NAME>
trisodium 1-[[3-carboxylato-5-(1,2-dihydroxyethyl)-2,6,7-trioxa-1$l^{4}-stibabicyclo[2.2.1]heptan-1-yl]oxy]-5-(1,2-dihydroxyethyl)-2,6,7-trioxa-1$l^{4}-stibabicyclo[2.2.1]heptane-3-carboxylate hydroxide decahydrate
> <PUBCHEM_IUPAC_CAS_NAME>
trisodium 1-[[3-carboxylato-5-(1,2-dihydroxyethyl)-2,6,7-trioxa-1$l^{4}-stibabicyclo[2.2.1]heptan-1-yl]oxy]-5-(1,2-dihydroxyethyl)-2,6,7-trioxa-1$l^{4}-stibabicyclo[2.2.1]heptane-3-carboxylate hydroxide decahydrate
> <PUBCHEM_IUPAC_NAME>
trisodium 1-[[3-carboxylato-5-(1,2-dihydroxyethyl)-2,6,7-trioxa-1$l^{4}-stibabicyclo[2.2.1]heptan-1-yl]oxy]-5-(1,2-dihydroxyethyl)-2,6,7-trioxa-1$l^{4}-stibabicyclo[2.2.1]heptane-3-carboxylate hydroxide decahydrate
> <PUBCHEM_IUPAC_SYSTEMATIC_NAME>
trisodium 1-[[3-carboxylato-5-(1,2-dihydroxyethyl)-2,6,7-trioxa-1$l^{4}-stibabicyclo[2.2.1]heptan-1-yl]oxy]-5-(1,2-dihydroxyethyl)-2,6,7-trioxa-1$l^{4}-stibabicyclo[2.2.1]heptane-3-carboxylate hydroxide decahydrate
> <PUBCHEM_IUPAC_TRADITIONAL_NAME>
trisodium 1-[[3-carboxylato-5-(1,2-dihydroxyethyl)-2,6,7-trioxa-1$l^{4}-stibabicyclo[2.2.1]heptan-1-yl]oxy]-5-(1,2-dihydroxyethyl)-2,6,7-trioxa-1$l^{4}-stibabicyclo[2.2.1]heptane-3-carboxylate hydroxide decahydrate
> <PUBCHEM_NIST_INCHI>
InChI=1S/2C6H9O7.3Na.11H2O.O.2Sb/c2*7-1-2(8)3(9)4(10)5(11)6(12)13;;;;;;;;;;;;;;;;;/h2*2-5,7-8H,1H2,(H,12,13);;;;11*1H2;;;/q2*-3;3*+1;;;;;;;;;;;;;2*+3/p-3
> <PUBCHEM_NIST_INCHIKEY>
RFLBDDMITDCCHA-UHFFFAOYSA-K
> <PUBCHEM_EXACT_MASS>
909.934649
> <PUBCHEM_MOLECULAR_FORMULA>
C12H37Na3O26Sb2
> <PUBCHEM_MOLECULAR_WEIGHT>
909.89589
> <PUBCHEM_OPENEYE_CAN_SMILES>
C(C(C1C2C(O[Sb](O2)(O1)O[Sb]34OC(C(O3)C(CO)O)C(O4)C(=O)[O-])C(=O)[O-])O)O.O.O.O.O.O.O.O.O.O.O.[OH-].[Na+].[Na+].[Na+]
> <PUBCHEM_OPENEYE_ISO_SMILES>
C(C(C1C2C(O[Sb](O2)(O1)O[Sb]34OC(C(O3)C(CO)O)C(O4)C(=O)[O-])C(=O)[O-])O)O.O.O.O.O.O.O.O.O.O.O.[OH-].[Na+].[Na+].[Na+]
> <PUBCHEM_CACTVS_TPSA>
237
> <PUBCHEM_MONOISOTOPIC_WEIGHT>
907.934251
> <PUBCHEM_TOTAL_CHARGE>
0
> <PUBCHEM_HEAVY_ATOM_COUNT>
43
> <PUBCHEM_ATOM_DEF_STEREO_COUNT>
0
> <PUBCHEM_ATOM_UDEF_STEREO_COUNT>
10
> <PUBCHEM_BOND_DEF_STEREO_COUNT>
0
> <PUBCHEM_BOND_UDEF_STEREO_COUNT>
0
> <PUBCHEM_ISOTOPIC_ATOM_COUNT>
0
> <PUBCHEM_COMPONENT_COUNT>
15
> <PUBCHEM_CACTVS_TAUTO_COUNT>
1
> <PUBCHEM_NONSTANDARDBOND>
1  13  6
2  14  6
> <PUBCHEM_COORDINATE_TYPE>
1
5
255
> <PUBCHEM_BONDANNOTATIONS>
1  13  4
1  6  3
33  10  3
35  11  3
38  15  3
39  16  3
2  14  4
2  6  3
36  40  3
37  41  3
32  7  3
34  8  3
$$$$
16683036

  -OEChem-09180909462D
 16 13  0     0  0  0  0  0  0999 V2000
    3.1760   -0.0185    0.0000 Al  0  0  0  0  0  1  0  0  0  0  0  0
    4.0421    0.4815    0.0000 O   0  0  0  0  0  0  0  0  0  0  0  0
    2.3100    0.4815    0.0000 O   0  0  0  0  0  0  0  0  0  0  0  0
    3.1760   -1.0185    0.0000 O   0  0  0  0  0  0  0  0  0  0  0  0
    4.9081   -1.0185    0.0000 O   0  0  0  0  0  0  0  0  0  0  0  0
    6.6401   -0.0185    0.0000 N   0  0  0  0  0  0  0  0  0  0  0  0
    5.7741    0.4815    0.0000 C   0  0  0  0  0  0  0  0  0  0  0  0
    4.9081   -0.0185    0.0000 C   0  0  0  0  0  0  0  0  0  0  0  0
    6.1726    0.9565    0.0000 H   0  0  0  0  0  0  0  0  0  0  0  0
    5.3756    0.9565    0.0000 H   0  0  0  0  0  0  0  0  0  0  0  0
    7.1771    0.2915    0.0000 H   0  0  0  0  0  0  0  0  0  0  0  0
    6.6401   -0.6385    0.0000 H   0  0  0  0  0  0  0  0  0  0  0  0
    2.0000   -0.0554    0.0000 H   0  0  0  0  0  0  0  0  0  0  0  0
    2.6200    1.0185    0.0000 H   0  0  0  0  0  0  0  0  0  0  0  0
    2.5560   -1.0185    0.0000 H   0  0  0  0  0  0  0  0  0  0  0  0
    3.7960   -1.0185    0.0000 H   0  0  0  0  0  0  0  0  0  0  0  0
  1  2  1  0  0  0  0
  2  8  1  0  0  0  0
  3 13  1  0  0  0  0
  3 14  1  0  0  0  0
  4 15  1  0  0  0  0
  4 16  1  0  0  0  0
  5  8  2  0  0  0  0
  6  7  1  0  0  0  0
  6 11  1  0  0  0  0
  6 12  1  0  0  0  0
  7  8  1  0  0  0  0
  7  9  1  0  0  0  0
  7 10  1  0  0  0  0
M  END
> <PUBCHEM_COMPOUND_CID>
16683036
> <sequencenumber>
3
> <PUBCHEM_COMPOUND_CANONICALIZED>
1
> <PUBCHEM_CACTVS_COMPLEXITY>
58
> <PUBCHEM_CACTVS_HBOND_ACCEPTOR>
5
> <PUBCHEM_CACTVS_HBOND_DONOR>
3
> <PUBCHEM_CACTVS_ROTATABLE_BOND>
3
> <PUBCHEM_CACTVS_SUBSKEYS>
AAADccBCOAAAABAAAAAAAAAAAAAAAAAAAAAAAAAAAAAAAAAAAAAAHgAQCIAAAADBgAQACABAAAAIAACQCAAAAAAAAAAAAICAAAACAAAAAAAAAAAAAAAAAAAAAAAAAAAAAAAAAAAAAAAAAAAAAAAAAAAAAA==
> <PUBCHEM_IUPAC_OPENEYE_NAME>
(2-aminoacetyl)oxyaluminum dihydrate
> <PUBCHEM_IUPAC_CAS_NAME>
(2-amino-1-oxoethoxy)aluminum dihydrate
> <PUBCHEM_IUPAC_NAME>
(2-aminoacetyl)oxyaluminum dihydrate
> <PUBCHEM_IUPAC_SYSTEMATIC_NAME>
2-azanylethanoyloxyaluminum dihydrate
> <PUBCHEM_IUPAC_TRADITIONAL_NAME>
glycyloxyaluminum dihydrate
> <PUBCHEM_NIST_INCHI>
InChI=1S/C2H5NO2.Al.2H2O/c3-1-2(4)5;;;/h1,3H2,(H,4,5);;2*1H2/q;+1;;/p-1
> <PUBCHEM_NIST_INCHIKEY>
RBNPZEHAODHBPZ-UHFFFAOYSA-M
> <PUBCHEM_EXACT_MASS>
137.026871
> <PUBCHEM_MOLECULAR_FORMULA>
C2H8AlNO4
> <PUBCHEM_MOLECULAR_WEIGHT>
137.070758
> <PUBCHEM_OPENEYE_CAN_SMILES>
C(C(=O)O[Al])N.O.O
> <PUBCHEM_OPENEYE_ISO_SMILES>
C(C(=O)O[Al])N.O.O
> <PUBCHEM_CACTVS_TPSA>
54.3
> <PUBCHEM_MONOISOTOPIC_WEIGHT>
137.026871
> <PUBCHEM_TOTAL_CHARGE>
0
> <PUBCHEM_HEAVY_ATOM_COUNT>
8
> <PUBCHEM_ATOM_DEF_STEREO_COUNT>
0
> <PUBCHEM_ATOM_UDEF_STEREO_COUNT>
0
> <PUBCHEM_BOND_DEF_STEREO_COUNT>
0
> <PUBCHEM_BOND_UDEF_STEREO_COUNT>
0
> <PUBCHEM_ISOTOPIC_ATOM_COUNT>
0
> <PUBCHEM_COMPONENT_COUNT>
3
> <PUBCHEM_CACTVS_TAUTO_COUNT>
1
> <PUBCHEM_NONSTANDARDBOND>
1  3  6
1  4  6
> <PUBCHEM_COORDINATE_TYPE>
1
5
255
> <PUBCHEM_BONDANNOTATIONS>
1  3  4
1  4  4
$$$$